/*--------------------------------*- C++ -*----------------------------------*\
  =========                 |
  \\      /  F ield         | OpenFOAM: The Open Source CFD Toolbox
   \\    /   O peration     | Website:  https://openfoam.org
    \\  /    A nd           | Version:  6
     \\/     M anipulation  |
\*---------------------------------------------------------------------------*/
FoamFile
{
    version     2.0;
    format      ascii;
    class       dictionary;
    object      transportProperties;
}
// * * * * * * * * * * * * * * * * * * * * * * * * * * * * * * * * * * * * * //

transportModel  Newtonian;

mu              mu [0 2 -1 0 0 0 0]3.77e-06;

nu              nu [0 2 -1 0 0 0 0]3.77e-06;


//mu              mu [1 -1 -1 0 0 0 0] 1.48e-05;

// Thermal expansion coefficient
beta            [0 0 0 -1 0 0 0] 3e-03;

//KappaEff         KappaEff [1 1 -3 -1 0 0 0] 14.85436;

//KappaEff         KappaEff [1 1 -3 -1 0 0 0] 14.85436;

//CpRef            CpRef [0 2 -2 -1 0 0 0] 2861.55;

//rhoRef           rhoRef [1 -3 0 0 0 0 0] 3845.206;

//rho           rho [1 -3 0 0 0 0 0] 1.225;

rho           rho [1 -3 0 0 0 0 0] 1;

alpha              alpha [0 2 -1 0 0 0 0] 5.8e-07;

alphas              alphas [0 2 -1 0 0 0 0] 5.8e-07;

// Reference temperature
TRef            [0 0 0 1 0 0 0] 300;

// Laminar Prandtl number
Pr              [0 0 0 0 0 0 0] 0.7;

// Turbulent Prandtl number
Prt             [0 0 0 0 0 0 0] 0.85;

// ************************************************************************* //
