/*--------------------------------*- C++ -*----------------------------------*\
| =========                 |                                                 |
| \\      /  F ield         | OpenFOAM: The Open Source CFD Toolbox           |
|  \\    /   O peration     | Version:  2.1.x                                 |
|   \\  /    A nd           | Web:      www.OpenFOAM.org                      |
|    \\/     M anipulation  |                                                 |
\*---------------------------------------------------------------------------*/
FoamFile
{
    version     2.0;
    format      ascii;
    class       dictionary;
    location    "system";
    object      funkySetFieldsDict;
}
// * * * * * * * * * * * * * * * * * * * * * * * * * * * * * * * * * * * * * //

expressions 
(
        D
     	{
		 field D;
                 variables ( "x1=4.975e-3;"
                             "p1= (pos().x)-x1;"
                              "val= 3283133150*(p1);");
                 expression "tensor (val, 0, 0, 0, 0, 0, 0, 0, 0)" ;
                  condition "pos().x>=4.975e-3 && pos().x<=5.025e-3";
          }
       
         F
     	{
		  field F;
                 variables ( "x1=4.975e-3;"
                             "p1=((pos().x)-x1);"
                              "val=1800*(p1);");
		  expression "tensor (val, 0, 0, 0, 0, 0, 0, 0, 0)" ;
                  condition "pos().x>=4.975e-3 && pos().x<=5.025e-3";
	} 
);

// ************************************************************************* //
