/*--------------------------------*- C++ -*----------------------------------*\
  =========                 |
  \\      /  F ield         | OpenFOAM: The Open Source CFD Toolbox
   \\    /   O peration     | Website:  https://openfoam.org
    \\  /    A nd           | Version:  6
     \\/     M anipulation  |
\*---------------------------------------------------------------------------*/
FoamFile
{
    version     2.0;
    format      ascii;
    class       dictionary;
    location    "system";
    object      fvSolution;
}
// * * * * * * * * * * * * * * * * * * * * * * * * * * * * * * * * * * * * * //

solvers
{
    p
    {
        solver          GAMG;
        tolerance       1e-06;
        relTol          0.05;
        smoother        GaussSeidel;
        nCellsInCoarsestLevel 20;
    }
   
     pFinal
    {
        $p;
        relTol          0;
    }

    "(U|T|epsilon)"
    {
        solver          smoothSolver;
        smoother        GaussSeidel;
        nSweeps         2;
        tolerance       1e-06;
        relTol          0.1;
    }
}

SIMPLE
{
    nUCorrectors    2;
    nNonOrthogonalCorrectors 3;
    pRefCell    0;
    pRefValue    0;
    residualControl
    {
        p               1e-6;
        U               1e-6;
        "(k|epsilon|omega|f|v2)" 1e-3;
    }
}

relaxationFactors
{
    fields
    {
        p               0.3;
    }
    equations
    {
        U               0.3;
        k               0.9;
        epsilon         0.9;
    }
}


// ************************************************************************* //
